data_LiC6
_audit_creation_date              2024-10-20
_audit_creation_method            'Materials Studio'
_symmetry_space_group_name_H-M    'P1'
_symmetry_Int_Tables_number       1
_symmetry_cell_setting            triclinic
loop_
_symmetry_equiv_pos_as_xyz
  x,y,z
_cell_length_a                    8.6466
_cell_length_b                    7.4907
_cell_length_c                    30.4787
_cell_angle_alpha                 90.0000
_cell_angle_beta                  90.0000
_cell_angle_gamma                 90.0000
loop_
_atom_site_label
_atom_site_type_symbol
_atom_site_fract_x
_atom_site_fract_y
_atom_site_fract_z
_atom_site_U_iso_or_equiv
_atom_site_adp_type
_atom_site_occupancy
Li1    Li   -0.00000   0.00000   0.14749   0.00000  Uiso   1.00
Li2    Li    0.25000   0.00000   0.27033   0.00000  Uiso   1.00
Li3    Li    0.00000   0.00000   0.39317   0.00000  Uiso   1.00
C4     C     0.16677   0.25000   0.14749   0.00000  Uiso   1.00
C5     C     0.41677   0.25000   0.27033   0.00000  Uiso   1.00
C6     C     0.16678   0.25000   0.39317   0.00000  Uiso   1.00
C7     C     0.41661   0.25000   0.18846   0.00000  Uiso   1.00
C8     C     0.16661   0.25000   0.31131   0.00000  Uiso   1.00
C9     C     0.41661   0.25000   0.43415   0.00000  Uiso   1.00
C10    C     0.41661   0.25000   0.10651   0.00000  Uiso   1.00
C11    C     0.16661   0.25000   0.22936   0.00000  Uiso   1.00
C12    C     0.41661   0.25000   0.35220   0.00000  Uiso   1.00
C13    C     0.33322   0.25000   0.14749   0.00000  Uiso   1.00
C14    C     0.08322   0.25000   0.27033   0.00000  Uiso   1.00
C15    C     0.33323   0.25000   0.39317   0.00000  Uiso   1.00
C16    C     0.08339   0.25000   0.10651   0.00000  Uiso   1.00
C17    C     0.33339   0.25000   0.22936   0.00000  Uiso   1.00
C18    C     0.08339   0.25000   0.35220   0.00000  Uiso   1.00
C19    C     0.08339   0.25000   0.18846   0.00000  Uiso   1.00
C20    C     0.33339   0.25000   0.31131   0.00000  Uiso   1.00
C21    C     0.08339   0.25000   0.43415   0.00000  Uiso   1.00
H22    H     0.33339   0.25000   0.47504   0.00000  Uiso   1.00
H23    H     0.33339   0.25000   0.06562   0.00000  Uiso   1.00
H24    H     0.16661   0.25000   0.06562   0.00000  Uiso   1.00
H25    H     0.16661   0.25000   0.47504   0.00000  Uiso   1.00
Li26   Li    0.50000   0.00000   0.14749   0.00000  Uiso   1.00
Li27   Li    0.75000   0.00000   0.27033   0.00000  Uiso   1.00
Li28   Li    0.50000   0.00000   0.39317   0.00000  Uiso   1.00
C29    C     0.66677   0.25000   0.14749   0.00000  Uiso   1.00
C30    C     0.91677   0.25000   0.27033   0.00000  Uiso   1.00
C31    C     0.66678   0.25000   0.39317   0.00000  Uiso   1.00
C32    C     0.91661   0.25000   0.18846   0.00000  Uiso   1.00
C33    C     0.66661   0.25000   0.31131   0.00000  Uiso   1.00
C34    C     0.91661   0.25000   0.43415   0.00000  Uiso   1.00
C35    C     0.91661   0.25000   0.10651   0.00000  Uiso   1.00
C36    C     0.66661   0.25000   0.22936   0.00000  Uiso   1.00
C37    C     0.91661   0.25000   0.35220   0.00000  Uiso   1.00
C38    C     0.83322   0.25000   0.14749   0.00000  Uiso   1.00
C39    C     0.58322   0.25000   0.27033   0.00000  Uiso   1.00
C40    C     0.83323   0.25000   0.39317   0.00000  Uiso   1.00
C41    C     0.58339   0.25000   0.10651   0.00000  Uiso   1.00
C42    C     0.83339   0.25000   0.22936   0.00000  Uiso   1.00
C43    C     0.58339   0.25000   0.35220   0.00000  Uiso   1.00
C44    C     0.58339   0.25000   0.18846   0.00000  Uiso   1.00
C45    C     0.83339   0.25000   0.31131   0.00000  Uiso   1.00
C46    C     0.58339   0.25000   0.43415   0.00000  Uiso   1.00
H47    H     0.83339   0.25000   0.47504   0.00000  Uiso   1.00
H48    H     0.83339   0.25000   0.06562   0.00000  Uiso   1.00
H49    H     0.66661   0.25000   0.06562   0.00000  Uiso   1.00
H50    H     0.66661   0.25000   0.47504   0.00000  Uiso   1.00
Li51   Li   -0.00000   0.50000   0.14749   0.00000  Uiso   1.00
Li52   Li    0.25000   0.50000   0.27033   0.00000  Uiso   1.00
Li53   Li    0.00000   0.50000   0.39317   0.00000  Uiso   1.00
C54    C     0.16677   0.75000   0.14749   0.00000  Uiso   1.00
C55    C     0.41677   0.75000   0.27033   0.00000  Uiso   1.00
C56    C     0.16678   0.75000   0.39317   0.00000  Uiso   1.00
C57    C     0.41661   0.75000   0.18846   0.00000  Uiso   1.00
C58    C     0.16661   0.75000   0.31131   0.00000  Uiso   1.00
C59    C     0.41661   0.75000   0.43415   0.00000  Uiso   1.00
C60    C     0.41661   0.75000   0.10651   0.00000  Uiso   1.00
C61    C     0.16661   0.75000   0.22936   0.00000  Uiso   1.00
C62    C     0.41661   0.75000   0.35220   0.00000  Uiso   1.00
C63    C     0.33322   0.75000   0.14749   0.00000  Uiso   1.00
C64    C     0.08322   0.75000   0.27033   0.00000  Uiso   1.00
C65    C     0.33323   0.75000   0.39317   0.00000  Uiso   1.00
C66    C     0.08339   0.75000   0.10651   0.00000  Uiso   1.00
C67    C     0.33339   0.75000   0.22936   0.00000  Uiso   1.00
C68    C     0.08339   0.75000   0.35220   0.00000  Uiso   1.00
C69    C     0.08339   0.75000   0.18846   0.00000  Uiso   1.00
C70    C     0.33339   0.75000   0.31131   0.00000  Uiso   1.00
C71    C     0.08339   0.75000   0.43415   0.00000  Uiso   1.00
H72    H     0.33339   0.75000   0.47504   0.00000  Uiso   1.00
H73    H     0.33339   0.75000   0.06562   0.00000  Uiso   1.00
H74    H     0.16661   0.75000   0.06562   0.00000  Uiso   1.00
H75    H     0.16661   0.75000   0.47504   0.00000  Uiso   1.00
Li76   Li    0.50000   0.50000   0.14749   0.00000  Uiso   1.00
Li77   Li    0.75000   0.50000   0.27033   0.00000  Uiso   1.00
Li78   Li    0.50000   0.50000   0.39317   0.00000  Uiso   1.00
C79    C     0.66677   0.75000   0.14749   0.00000  Uiso   1.00
C80    C     0.91677   0.75000   0.27033   0.00000  Uiso   1.00
C81    C     0.66678   0.75000   0.39317   0.00000  Uiso   1.00
C82    C     0.91661   0.75000   0.18846   0.00000  Uiso   1.00
C83    C     0.66661   0.75000   0.31131   0.00000  Uiso   1.00
C84    C     0.91661   0.75000   0.43415   0.00000  Uiso   1.00
C85    C     0.91661   0.75000   0.10651   0.00000  Uiso   1.00
C86    C     0.66661   0.75000   0.22936   0.00000  Uiso   1.00
C87    C     0.91661   0.75000   0.35220   0.00000  Uiso   1.00
C88    C     0.83322   0.75000   0.14749   0.00000  Uiso   1.00
C89    C     0.58322   0.75000   0.27033   0.00000  Uiso   1.00
C90    C     0.83323   0.75000   0.39317   0.00000  Uiso   1.00
C91    C     0.58339   0.75000   0.10651   0.00000  Uiso   1.00
C92    C     0.83339   0.75000   0.22936   0.00000  Uiso   1.00
C93    C     0.58339   0.75000   0.35220   0.00000  Uiso   1.00
C94    C     0.58339   0.75000   0.18846   0.00000  Uiso   1.00
C95    C     0.83339   0.75000   0.31131   0.00000  Uiso   1.00
C96    C     0.58339   0.75000   0.43415   0.00000  Uiso   1.00
H97    H     0.83339   0.75000   0.47504   0.00000  Uiso   1.00
H98    H     0.83339   0.75000   0.06562   0.00000  Uiso   1.00
H99    H     0.66661   0.75000   0.06562   0.00000  Uiso   1.00
H100   H     0.66661   0.75000   0.47504   0.00000  Uiso   1.00
loop_
_geom_bond_atom_site_label_1
_geom_bond_atom_site_label_2
_geom_bond_distance
_geom_bond_site_symmetry_2
_ccdc_geom_bond_type
C4     C13     1.439   .     S
C4     C16     1.442   .     S
C4     C19     1.442   .     D
C5     C39     1.439   .     S
C5     C17     1.442   .     S
C5     C20     1.442   .     D
C6     C15     1.439   .     S
C6     C18     1.442   .     S
C6     C21     1.442   .     D
C7     C13     1.442   .     S
C7     C17     1.439   .     D
C7     C44     1.442   .     S
C8     C14     1.442   .     S
C8     C18     1.439   .     D
C8     C20     1.442   .     S
C9     C15     1.442   .     S
C9     H22     1.439   .     D
C9     C46     1.442   .     S
C10    C13     1.442   .     D
C10    C41     1.442   .     S
C10    H23     1.439   .     S
C11    C14     1.442   .     D
C11    C17     1.442   .     S
C11    C19     1.439   .     S
C12    C15     1.442   .     D
C12    C43     1.442   .     S
C12    C20     1.439   .     S
C14    C30     1.439   1_455 S
C16    H24     1.439   .     D
C16    C35     1.442   1_455 S
C18    C37     1.442   1_455 S
C19    C32     1.442   1_455 S
C21    H25     1.439   .     S
C21    C34     1.442   1_455 S
C29    C38     1.439   .     S
C29    C41     1.442   .     S
C29    C44     1.442   .     D
C30    C14     1.439   1_655 S
C30    C42     1.442   .     S
C30    C45     1.442   .     D
C31    C40     1.439   .     S
C31    C43     1.442   .     S
C31    C46     1.442   .     D
C32    C38     1.442   .     S
C32    C42     1.439   .     D
C32    C19     1.442   1_655 S
C33    C39     1.442   .     S
C33    C43     1.439   .     D
C33    C45     1.442   .     S
C34    C40     1.442   .     S
C34    H47     1.439   .     D
C34    C21     1.442   1_655 S
C35    C38     1.442   .     D
C35    C16     1.442   1_655 S
C35    H48     1.439   .     S
C36    C39     1.442   .     D
C36    C42     1.442   .     S
C36    C44     1.439   .     S
C37    C40     1.442   .     D
C37    C18     1.442   1_655 S
C37    C45     1.439   .     S
C41    H49     1.439   .     D
C46    H50     1.439   .     S
C54    C63     1.439   .     S
C54    C66     1.442   .     S
C54    C69     1.442   .     D
C55    C89     1.439   .     S
C55    C67     1.442   .     S
C55    C70     1.442   .     D
C56    C65     1.439   .     S
C56    C68     1.442   .     S
C56    C71     1.442   .     D
C57    C63     1.442   .     S
C57    C67     1.439   .     D
C57    C94     1.442   .     S
C58    C64     1.442   .     S
C58    C68     1.439   .     D
C58    C70     1.442   .     S
C59    C65     1.442   .     S
C59    H72     1.439   .     D
C59    C96     1.442   .     S
C60    C63     1.442   .     D
C60    C91     1.442   .     S
C60    H73     1.439   .     S
C61    C64     1.442   .     D
C61    C67     1.442   .     S
C61    C69     1.439   .     S
C62    C65     1.442   .     D
C62    C93     1.442   .     S
C62    C70     1.439   .     S
C64    C80     1.439   1_455 S
C66    H74     1.439   .     D
C66    C85     1.442   1_455 S
C68    C87     1.442   1_455 S
C69    C82     1.442   1_455 S
C71    H75     1.439   .     S
C71    C84     1.442   1_455 S
C79    C88     1.439   .     S
C79    C91     1.442   .     S
C79    C94     1.442   .     D
C80    C64     1.439   1_655 S
C80    C92     1.442   .     S
C80    C95     1.442   .     D
C81    C90     1.439   .     S
C81    C93     1.442   .     S
C81    C96     1.442   .     D
C82    C88     1.442   .     S
C82    C92     1.439   .     D
C82    C69     1.442   1_655 S
C83    C89     1.442   .     S
C83    C93     1.439   .     D
C83    C95     1.442   .     S
C84    C90     1.442   .     S
C84    H97     1.439   .     D
C84    C71     1.442   1_655 S
C85    C88     1.442   .     D
C85    C66     1.442   1_655 S
C85    H98     1.439   .     S
C86    C89     1.442   .     D
C86    C92     1.442   .     S
C86    C94     1.439   .     S
C87    C90     1.442   .     D
C87    C68     1.442   1_655 S
C87    C95     1.439   .     S
C91    H99     1.439   .     D
C96    H100    1.439   .     S
